{"result": {"response": {"id": "chatcmpl-aa4848c2-ce00-4de9-befc-9f79a99e0ee7", "created": 1761334489, "model": "ollama/llama3:8b", "object": "chat.completion", "system_fingerprint": null, "choices": [{"finish_reason": "stop", "index": 0, "message": {"content": "Based on the provided text, I will identify all entities and relationships.\n\n**Entities:**\n\n(\"entity\"<|>DEEP EXPLORER<|>EQUIPMENT<|>The Deep Explorer is a vessel that was conducting ROV dredging operations at the time of the incident)\n##\n(\"entity\"<|>RIL<|>ORGANIZATION<|>RIL is an organization involved in the incident)\n##\n(\"entity\"<|>SEAWATER PUMP #2<|>EQUIPMENT<|>The Seawater Pump #2 was leaking, causing water ingress into the bilge area)\n##\n(\"entity\"<|>KAKINADA PORT<|>LOCATION<|>Kakinada Port is a location where the vessel arrived after the incident)\n##\n(\"entity\"<|>ECR<|>ORGANIZATION<|>The ECR team responded to the incident and investigated the cause of the leak)\n\n**Relationships:**\n\n(\"relationship\"<|>DEEP EXPLORER<|>SEAWATER PUMP #2<|>The Deep Explorer was operating when Seawater Pump #2 leaked, causing water ingress into the bilge area<|>9)\n##\n(\"relationship\"<|>RIL<|>DEEP EXPLORER<|>RIL is involved in the operation of the Deep Explorer vessel<|>5)\n##\n(\"relationship\"<|>ECR<|>SEAWATER PUMP #2<|>The ECR team investigated the cause of the leak from Seawater Pump #2<|>8)\n\n**Output:**\n\n## (\"entity\"<|>DEEP EXPLORER<|>EQUIPMENT<|>The Deep Explorer is a vessel that was conducting ROV dredging operations at the time of the incident)\n##\n(\"entity\"<|>RIL<|>ORGANIZATION<|>RIL is an organization involved in the incident)\n##\n(\"entity\"<|>SEAWATER PUMP #2<|>EQUIPMENT<|>The Seawater Pump #2 was leaking, causing water ingress into the bilge area)\n##\n(\"entity\"<|>KAKINADA PORT<|>LOCATION<|>Kakinada Port is a location where the vessel arrived after the incident)\n##\n(\"entity\"<|>ECR<|>ORGANIZATION<|>The ECR team responded to the incident and investigated the cause of the leak)\n##\n(\"relationship\"<|>DEEP EXPLORER<|>SEAWATER PUMP #2<|>The Deep Explorer was operating when Seawater Pump #2 leaked, causing water ingress into the bilge area<|>9)\n##\n(\"relationship\"<|>RIL<|>DEEP EXPLORER<|>RIL is involved in the operation of the Deep Explorer vessel<|>5)\n##\n(\"relationship\"<|>ECR<|>SEAWATER PUMP #2<|>The ECR team investigated the cause of the leak from Seawater Pump #2<|>8)\n<|COMPLETE|>\n\nPlease note that this is a simulated output based on the provided text. The actual output may vary depending on the specific requirements and constraints of the task.", "role": "assistant", "tool_calls": null, "function_call": null, "reasoning_content": null}}], "usage": {"completion_tokens": 651, "prompt_tokens": 2369, "total_tokens": 3020, "completion_tokens_details": null, "prompt_tokens_details": null}}}}