{"result": {"response": {"id": "chatcmpl-ecd50438-7369-4f59-8a82-5b425c0a190d", "created": 1761334496, "model": "ollama/llama3:8b", "object": "chat.completion", "system_fingerprint": null, "choices": [{"finish_reason": "stop", "index": 0, "message": {"content": "I apologize for the mistake earlier. Here are the additional entities and relationships that I found:\n\n**Entities:**\n\n(\"entity\"<|>INTLEX<|>ORGANIZATION<|>Intelex is a system of record used in this case)\n##\n(\"entity\"<|>JANUARY 16, 2022<|>DATE<|>January 16, 2022 is the date of the incident)\n\n**Relationships:**\n\n(\"relationship\"<|>DEEP EXPLORER<|>INTLEX<|>The Deep Explorer used Intelex as a system of record for this case<|>5)\n##\n(\"relationship\"<|>JANUARY 16, 2022<|>DEEP EXPLORER<|>January 16, 2022 is the date when the incident occurred on the Deep Explorer vessel<|>9)\n\n**Output:**\n\n## (\"entity\"<|>DEEP EXPLORER<|>EQUIPMENT<|>The Deep Explorer is a vessel that was conducting ROV dredging operations at the time of the incident)\n##\n(\"entity\"<|>RIL<|>ORGANIZATION<|>RIL is an organization involved in the incident)\n##\n(\"entity\"<|>SEAWATER PUMP #2<|>EQUIPMENT<|>The Seawater Pump #2 was leaking, causing water ingress into the bilge area)\n##\n(\"entity\"<|>KAKINADA PORT<|>LOCATION<|>Kakinada Port is a location where the vessel arrived after the incident)\n##\n(\"entity\"<|>ECR<|>ORGANIZATION<|>The ECR team responded to the incident and investigated the cause of the leak)\n##\n(\"entity\"<|>INTLEX<|>ORGANIZATION<|>Intelex is a system of record used in this case)\n##\n(\"entity\"<|>JANUARY 16, 2022<|>DATE<|>January 16, 2022 is the date of the incident)\n##\n(\"relationship\"<|>DEEP EXPLORER<|>SEAWATER PUMP #2<|>The Deep Explorer was operating when Seawater Pump #2 leaked, causing water ingress into the bilge area<|>9)\n##\n(\"relationship\"<|>RIL<|>DEEP EXPLORER<|>RIL is involved in the operation of the Deep Explorer vessel<|>5)\n##\n(\"relationship\"<|>ECR<|>SEAWATER PUMP #2<|>The ECR team investigated the cause of the leak from Seawater Pump #2<|>8)\n##\n(\"relationship\"<|>DEEP EXPLORER<|>INTLEX<|>The Deep Explorer used Intelex as a system of record for this case<|>5)\n##\n(\"relationship\"<|>JANUARY 16, 2022<|>DEEP EXPLORER<|>January 16, 2022 is the date when the incident occurred on the Deep Explorer vessel<|>9)\n<|COMPLETE|>\n\nPlease note that this output includes all entities and relationships that match any of the previously extracted types.", "role": "assistant", "tool_calls": null, "function_call": null, "reasoning_content": null}}], "usage": {"completion_tokens": 676, "prompt_tokens": 3085, "total_tokens": 3761, "completion_tokens_details": null, "prompt_tokens_details": null}}}}