{"result": {"response": {"id": "chatcmpl-2e42da5a-fca1-40ea-a2cb-4e964afe81cd", "created": 1761337516, "model": "ollama/llama3:8b", "object": "chat.completion", "system_fingerprint": null, "choices": [{"finish_reason": "stop", "index": 0, "message": {"content": "Based on the provided text and entity types, I will identify all entities and relationships among them.\n\n**Entities:**\n\n1. (\"entity\"<|>ENVIRONMENT<|>BODY_PART<|>The buoyancy effect of seawater needs to be considered)\n2. (\"entity\"<|>SEAWATER<|>LOCATION<|>Seawater has a density of around 1.025 g/cm3)\n3. (\"entity\"<|>STAINLESS STEEL<|>EQUIPMENT<|>2.5 kg of stainless steel in seawater)\n4. (\"entity\"<|>DEEP DISCOVERER<|>LOCATION<|>The workplace: Deep Discoverer, Aberdeen, UK, Europe, TechnipFMC)\n5. (\"entity\"<|>BP EXPLORATION OPERATING COMPANY<|>ORGANIZATION<|>Client for the case)\n6. (\"entity\"<|>CLaire Ridget Caisson Removal<|>PROJECT<|>The name of the project is 300575C001 - Claire Ridget Caisson Removal)\n7. (\"entity\"<|>SUBSEA<|>ORGANIZATION<|>General Business Unit involved in the case)\n8. (\"entity\"<|>PROJECTS<|>ORGANIZATION<|>Specific Business Unit involved in the case)\n\n**Relationships:**\n\n1. (\"relationship\"<|>STAINLESS STEEL<|>SEAWATER<|>The weight of stainless steel in seawater is approximately 2.18 kg<|>8)\n2. (\"relationship\"<|>DEEP DISCOVERER<|>BP EXPLORATION OPERATING COMPANY<|>This case occurred at the workplace: Deep Discoverer, Aberdeen, UK, Europe, TechnipFMC<|>9)\n3. (\"relationship\"<|>CLaire Ridget Caisson Removal<|>SUBSEA<|>The project is 300575C001 - Claire Ridget Caisson Removal, which belongs to Subsea<|>2)\n4. (\"relationship\"<|>PROJECTS<|>SUBSEA<|>Projects is a specific Business Unit involved in the case, which belongs to Subsea<|>2)\n\n**Output:**\n\n(\"entity\"<|>ENVIRONMENT<|>BODY_PART<|>The buoyancy effect of seawater needs to be considered)\n##\n(\"entity\"<|>SEAWATER<|>LOCATION<|>Seawater has a density of around 1.025 g/cm3)\n##\n(\"entity\"<|>STAINLESS STEEL<|>EQUIPMENT<|>2.5 kg of stainless steel in seawater)\n##\n(\"entity\"<|>DEEP DISCOVERER<|>LOCATION<|>The workplace: Deep Discoverer, Aberdeen, UK, Europe, TechnipFMC)\n##\n(\"entity\"<|>BP EXPLORATION OPERATING COMPANY<|>ORGANIZATION<|>Client for the case)\n##\n(\"entity\"<|>CLaire Ridget Caisson Removal<|>PROJECT<|>The name of the project is 300575C001 - Claire Ridget Caisson Removal)\n##\n(\"entity\"<|>SUBSEA<|>ORGANIZATION<|>General Business Unit involved in the case)\n##\n(\"entity\"<|>PROJECTS<|>ORGANIZATION<|>Specific Business Unit involved in the case)\n##\n(\"relationship\"<|>STAINLESS STEEL<|>SEAWATER<|>The weight of stainless steel in seawater is approximately 2.18 kg<|>8)\n##\n(\"relationship\"<|>DEEP DISCOVERER<|>BP EXPLORATION OPERATING COMPANY<|>This case occurred at the workplace: Deep Discoverer, Aberdeen, UK, Europe, TechnipFMC<|>9)\n##\n(\"relationship\"<|>CLaire Ridget Caisson Removal<|>SUBSEA<|>The project is 300575C001 - Claire Ridget Caisson Removal, which belongs to Subsea<|>2)\n##\n(\"relationship\"<|>PROJECTS<|>SUBSEA<|>Projects is a specific Business Unit involved in the case, which belongs to Subsea<|>2)\n<|COMPLETE|>\n\nPlease note that this output may not exactly match the expected format due to the complexity of the provided text and entity types.", "role": "assistant", "tool_calls": null, "function_call": null, "reasoning_content": null}}], "usage": {"completion_tokens": 913, "prompt_tokens": 2366, "total_tokens": 3279, "completion_tokens_details": null, "prompt_tokens_details": null}}}}