{"result": {"response": {"id": "chatcmpl-1bdad4fc-482f-4d70-a656-e1679c30cc4e", "created": 1761337523, "model": "ollama/llama3:8b", "object": "chat.completion", "system_fingerprint": null, "choices": [{"finish_reason": "stop", "index": 0, "message": {"content": "I apologize for the mistake earlier. Here are the additional entities and relationships that match the provided entity types:\n\n**Entities:**\n\n1. (\"entity\"<|>DATE<|>DATE<|>The date when the incident was reported as closed is)\n2. (\"entity\"<|>INCIDENT<|>INCIDENT_TYPE<|>This case is a type of Accident)\n3. (\"entity\"<|>RISK MATRIX<|>ORGANIZATION<|>The Risk Matrix was used to categorize this case)\n\n**Relationships:**\n\n1. (\"relationship\"<|>DATE<|>DATE<|>The date when the incident has been approved as completed is 9/18/2023<|>2)\n2. (\"relationship\"<|>INCIDENT<|>RISK MATRIX<|>This case was categorized using the Risk Matrix<|>2)\n\n**Output:**\n\n(\"entity\"<|>ENVIRONMENT<|>BODY_PART<|>The buoyancy effect of seawater needs to be considered)\n##\n(\"entity\"<|>SEAWATER<|>LOCATION<|>Seawater has a density of around 1.025 g/cm3)\n##\n(\"entity\"<|>STAINLESS STEEL<|>EQUIPMENT<|>2.5 kg of stainless steel in seawater)\n##\n(\"entity\"<|>DEEP DISCOVERER<|>LOCATION<|>The workplace: Deep Discoverer, Aberdeen, UK, Europe, TechnipFMC)\n##\n(\"entity\"<|>BP EXPLORATION OPERATING COMPANY<|>ORGANIZATION<|>Client for the case)\n##\n(\"entity\"<|>CLaire Ridget Caisson Removal<|>PROJECT<|>The name of the project is 300575C001 - Claire Ridget Caisson Removal)\n##\n(\"entity\"<|>SUBSEA<|>ORGANIZATION<|>General Business Unit involved in the case)\n##\n(\"entity\"<|>PROJECTS<|>ORGANIZATION<|>Specific Business Unit involved in the case)\n##\n(\"entity\"<|>DATE<|>DATE<|>The date when the incident was reported as closed is)\n##\n(\"entity\"<|>INCIDENT<|>INCIDENT_TYPE<|>This case is a type of Accident)\n##\n(\"entity\"<|>RISK MATRIX<|>ORGANIZATION<|>The Risk Matrix was used to categorize this case)\n##\n(\"relationship\"<|>STAINLESS STEEL<|>SEAWATER<|>The weight of stainless steel in seawater is approximately 2.18 kg<|>8)\n##\n(\"relationship\"<|>DEEP DISCOVERER<|>BP EXPLORATION OPERATING COMPANY<|>This case occurred at the workplace: Deep Discoverer, Aberdeen, UK, Europe, TechnipFMC<|>9)\n##\n(\"relationship\"<|>CLaire Ridget Caisson Removal<|>SUBSEA<|>The project is 300575C001 - Claire Ridget Caisson Removal, which belongs to Subsea<|>2)\n##\n(\"relationship\"<|>PROJECTS<|>SUBSEA<|>Projects is a specific Business Unit involved in the case, which belongs to Subsea<|>2)\n##\n(\"relationship\"<|>DATE<|>DATE<|>The date when the incident has been approved as completed is 9/18/2023<|>2)\n##\n(\"relationship\"<|>INCIDENT<|>RISK MATRIX<|>This case was categorized using the Risk Matrix<|>2)\n<|COMPLETE|>\n\nPlease let me know if this output meets your requirements.", "role": "assistant", "tool_calls": null, "function_call": null, "reasoning_content": null}}], "usage": {"completion_tokens": 760, "prompt_tokens": 3324, "total_tokens": 4084, "completion_tokens_details": null, "prompt_tokens_details": null}}}}